
     RDKit          3D

 14 13  0  0  0  0  0  0  0  0999 V2000
   -1.2723   -0.6848   -0.0019 C   0  0  0  0  0  0  0  0  0  0  0  0
   -0.0032    0.0307    0.3220 C   0  0  0  0  0  0  0  0  0  0  0  0
    1.2364   -0.7867    0.0340 C   0  0  0  0  0  0  0  0  0  0  0  0
    0.0604    1.3947   -0.3210 C   0  0  0  0  0  0  0  0  0  0  0  0
   -1.0665   -1.4688   -0.7509 H   0  0  0  0  0  0  0  0  0  0  0  0
   -1.7660   -1.0964    0.9229 H   0  0  0  0  0  0  0  0  0  0  0  0
   -2.0243    0.0455   -0.4084 H   0  0  0  0  0  0  0  0  0  0  0  0
    0.0022    0.2094    1.4299 H   0  0  0  0  0  0  0  0  0  0  0  0
    1.4066   -1.5153    0.8695 H   0  0  0  0  0  0  0  0  0  0  0  0
    1.1969   -1.3222   -0.9144 H   0  0  0  0  0  0  0  0  0  0  0  0
    2.1011   -0.0722    0.1098 H   0  0  0  0  0  0  0  0  0  0  0  0
   -0.8179    1.9658    0.0846 H   0  0  0  0  0  0  0  0  0  0  0  0
   -0.0133    1.3717   -1.4151 H   0  0  0  0  0  0  0  0  0  0  0  0
    0.9597    1.9286    0.0390 H   0  0  0  0  0  0  0  0  0  0  0  0
  1  2  1  0
  2  3  1  0
  2  4  1  0
  1  5  1  0
  1  6  1  0
  1  7  1  0
  2  8  1  0
  3  9  1  0
  3 10  1  0
  3 11  1  0
  4 12  1  0
  4 13  1  0
  4 14  1  0
M  END
